&model_inputs
	fileName='atm_file'
	fileNameFlux='sfc_file'
	IOFORM='{{out_form}}'
	grib='{{grib_version}}'
	DateStr='%Y-%m-%d_%H:%M:%S'
	MODELNAME='GFS'
/

&NAMPGB
	{{post_variables}}
/
